<?xml version="1.0"?>

<!-- generated on Fri Apr  5 15:09:40 2013 by SUMO duarouter Version 0.16.0
<?xml version="1.0" encoding="UTF-8"?>

<configuration xmlns:xsi="http://www.w3.org/2001/XMLSchema-instance" xsi:noNamespaceSchemaLocation="http://sumo.sf.net/xsd/duarouterConfiguration.xsd">

    <input>
        <net-file value="ortuzar.net.xml"/>
        <flow-files value="ortuzar.flow.xml"/>
    </input>

    <output>
        <output-file value="ortuzar.rou.xml"/>
    </output>

</configuration>
-->

<routes xmlns:xsi="http://www.w3.org/2001/XMLSchema-instance" xsi:noNamespaceSchemaLocation="http://sumo.sf.net/xsd/routes_file.xsd">
    <vehicle id="1_0" depart="1.00">
        <route edges="A1A AC CG GJ JI IL LL1"/>
    </vehicle>
    <vehicle id="2_0" depart="1.00">
        <route edges="A1A AC CD DH HK KM MM1"/>
    </vehicle>
    <vehicle id="3_0" depart="1.00">
        <route edges="B1B BD DG GJ JI IL LL1"/>
    </vehicle>
    <vehicle id="4_0" depart="1.00">
        <route edges="B1B BE EH HK KM MM1"/>
    </vehicle>
    <vehicle id="1_1" depart="7.00">
        <route edges="A1A AC CG GJ JI IL LL1"/>
    </vehicle>
    <vehicle id="2_1" depart="10.00">
        <route edges="A1A AC CD DH HK KM MM1"/>
    </vehicle>
    <vehicle id="4_1" depart="10.00">
        <route edges="B1B BE EH HK KM MM1"/>
    </vehicle>
    <vehicle id="1_2" depart="13.00">
        <route edges="A1A AC CG GJ JI IL LL1"/>
    </vehicle>
    <vehicle id="3_1" depart="13.00">
        <route edges="B1B BD DG GJ JI IL LL1"/>
    </vehicle>
    <vehicle id="1_3" depart="19.00">
        <route edges="A1A AC CG GJ JI IL LL1"/>
    </vehicle>
    <vehicle id="2_2" depart="19.00">
        <route edges="A1A AC CD DH HK KM MM1"/>
    </vehicle>
    <vehicle id="4_2" depart="19.00">
        <route edges="B1B BE EH HK KM MM1"/>
    </vehicle>
    <vehicle id="1_4" depart="25.00">
        <route edges="A1A AC CG GJ JI IL LL1"/>
    </vehicle>
    <vehicle id="3_2" depart="25.00">
        <route edges="B1B BD DG GJ JI IL LL1"/>
    </vehicle>
    <vehicle id="2_3" depart="28.00">
        <route edges="A1A AC CD DH HK KM MM1"/>
    </vehicle>
    <vehicle id="4_3" depart="28.00">
        <route edges="B1B BE EH HK KM MM1"/>
    </vehicle>
    <vehicle id="1_5" depart="31.00">
        <route edges="A1A AC CG GJ JI IL LL1"/>
    </vehicle>
    <vehicle id="1_6" depart="37.00">
        <route edges="A1A AC CG GJ JI IL LL1"/>
    </vehicle>
    <vehicle id="2_4" depart="37.00">
        <route edges="A1A AC CD DH HK KM MM1"/>
    </vehicle>
    <vehicle id="3_3" depart="37.00">
        <route edges="B1B BD DG GJ JI IL LL1"/>
    </vehicle>
    <vehicle id="4_4" depart="37.00">
        <route edges="B1B BE EH HK KM MM1"/>
    </vehicle>
    <vehicle id="1_7" depart="43.00">
        <route edges="A1A AC CG GJ JI IL LL1"/>
    </vehicle>
    <vehicle id="2_5" depart="46.00">
        <route edges="A1A AC CD DH HK KM MM1"/>
    </vehicle>
    <vehicle id="4_5" depart="46.00">
        <route edges="B1B BE EH HK KM MM1"/>
    </vehicle>
    <vehicle id="1_8" depart="49.00">
        <route edges="A1A AC CG GJ JI IL LL1"/>
    </vehicle>
    <vehicle id="3_4" depart="49.00">
        <route edges="B1B BD DG GJ JI IL LL1"/>
    </vehicle>
    <vehicle id="1_9" depart="55.00">
        <route edges="A1A AC CG GJ JI IL LL1"/>
    </vehicle>
    <vehicle id="2_6" depart="55.00">
        <route edges="A1A AC CD DH HK KM MM1"/>
    </vehicle>
    <vehicle id="4_6" depart="55.00">
        <route edges="B1B BE EH HK KM MM1"/>
    </vehicle>
    <vehicle id="1_10" depart="61.00">
        <route edges="A1A AC CG GJ JI IL LL1"/>
    </vehicle>
    <vehicle id="3_5" depart="61.00">
        <route edges="B1B BD DG GJ JI IL LL1"/>
    </vehicle>
    <vehicle id="2_7" depart="64.00">
        <route edges="A1A AC CD DH HK KM MM1"/>
    </vehicle>
    <vehicle id="4_7" depart="64.00">
        <route edges="B1B BE EH HK KM MM1"/>
    </vehicle>
    <vehicle id="1_11" depart="67.00">
        <route edges="A1A AC CG GJ JI IL LL1"/>
    </vehicle>
    <vehicle id="1_12" depart="73.00">
        <route edges="A1A AC CG GJ JI IL LL1"/>
    </vehicle>
    <vehicle id="2_8" depart="73.00">
        <route edges="A1A AC CD DH HK KM MM1"/>
    </vehicle>
    <vehicle id="3_6" depart="73.00">
        <route edges="B1B BD DG GJ JI IL LL1"/>
    </vehicle>
    <vehicle id="4_8" depart="73.00">
        <route edges="B1B BE EH HK KM MM1"/>
    </vehicle>
    <vehicle id="1_13" depart="79.00">
        <route edges="A1A AC CG GJ JI IL LL1"/>
    </vehicle>
    <vehicle id="2_9" depart="82.00">
        <route edges="A1A AC CD DH HK KM MM1"/>
    </vehicle>
    <vehicle id="4_9" depart="82.00">
        <route edges="B1B BE EH HK KM MM1"/>
    </vehicle>
    <vehicle id="1_14" depart="85.00">
        <route edges="A1A AC CG GJ JI IL LL1"/>
    </vehicle>
    <vehicle id="3_7" depart="85.00">
        <route edges="B1B BD DG GJ JI IL LL1"/>
    </vehicle>
    <vehicle id="1_15" depart="91.00">
        <route edges="A1A AC CG GJ JI IL LL1"/>
    </vehicle>
    <vehicle id="2_10" depart="91.00">
        <route edges="A1A AC CD DH HK KM MM1"/>
    </vehicle>
    <vehicle id="4_10" depart="91.00">
        <route edges="B1B BE EH HK KM MM1"/>
    </vehicle>
    <vehicle id="1_16" depart="97.00">
        <route edges="A1A AC CG GJ JI IL LL1"/>
    </vehicle>
    <vehicle id="3_8" depart="97.00">
        <route edges="B1B BD DG GJ JI IL LL1"/>
    </vehicle>
    <vehicle id="2_11" depart="100.00">
        <route edges="A1A AC CD DH HK KM MM1"/>
    </vehicle>
    <vehicle id="4_11" depart="100.00">
        <route edges="B1B BE EH HK KM MM1"/>
    </vehicle>
    <vehicle id="1_17" depart="103.00">
        <route edges="A1A AC CG GJ JI IL LL1"/>
    </vehicle>
    <vehicle id="1_18" depart="109.00">
        <route edges="A1A AC CG GJ JI IL LL1"/>
    </vehicle>
    <vehicle id="2_12" depart="109.00">
        <route edges="A1A AC CD DH HK KM MM1"/>
    </vehicle>
    <vehicle id="3_9" depart="109.00">
        <route edges="B1B BD DG GJ JI IL LL1"/>
    </vehicle>
    <vehicle id="4_12" depart="109.00">
        <route edges="B1B BE EH HK KM MM1"/>
    </vehicle>
    <vehicle id="1_19" depart="115.00">
        <route edges="A1A AC CG GJ JI IL LL1"/>
    </vehicle>
    <vehicle id="2_13" depart="118.00">
        <route edges="A1A AC CD DH HK KM MM1"/>
    </vehicle>
    <vehicle id="4_13" depart="118.00">
        <route edges="B1B BE EH HK KM MM1"/>
    </vehicle>
    <vehicle id="1_20" depart="121.00">
        <route edges="A1A AC CG GJ JI IL LL1"/>
    </vehicle>
    <vehicle id="3_10" depart="121.00">
        <route edges="B1B BD DG GJ JI IL LL1"/>
    </vehicle>
    <vehicle id="1_21" depart="127.00">
        <route edges="A1A AC CG GJ JI IL LL1"/>
    </vehicle>
    <vehicle id="2_14" depart="127.00">
        <route edges="A1A AC CD DH HK KM MM1"/>
    </vehicle>
    <vehicle id="4_14" depart="127.00">
        <route edges="B1B BE EH HK KM MM1"/>
    </vehicle>
    <vehicle id="1_22" depart="133.00">
        <route edges="A1A AC CG GJ JI IL LL1"/>
    </vehicle>
    <vehicle id="3_11" depart="133.00">
        <route edges="B1B BD DG GJ JI IL LL1"/>
    </vehicle>
    <vehicle id="2_15" depart="136.00">
        <route edges="A1A AC CD DH HK KM MM1"/>
    </vehicle>
    <vehicle id="4_15" depart="136.00">
        <route edges="B1B BE EH HK KM MM1"/>
    </vehicle>
    <vehicle id="1_23" depart="139.00">
        <route edges="A1A AC CG GJ JI IL LL1"/>
    </vehicle>
    <vehicle id="1_24" depart="145.00">
        <route edges="A1A AC CG GJ JI IL LL1"/>
    </vehicle>
    <vehicle id="2_16" depart="145.00">
        <route edges="A1A AC CD DH HK KM MM1"/>
    </vehicle>
    <vehicle id="3_12" depart="145.00">
        <route edges="B1B BD DG GJ JI IL LL1"/>
    </vehicle>
    <vehicle id="4_16" depart="145.00">
        <route edges="B1B BE EH HK KM MM1"/>
    </vehicle>
    <vehicle id="1_25" depart="151.00">
        <route edges="A1A AC CG GJ JI IL LL1"/>
    </vehicle>
    <vehicle id="2_17" depart="154.00">
        <route edges="A1A AC CD DH HK KM MM1"/>
    </vehicle>
    <vehicle id="4_17" depart="154.00">
        <route edges="B1B BE EH HK KM MM1"/>
    </vehicle>
    <vehicle id="1_26" depart="157.00">
        <route edges="A1A AC CG GJ JI IL LL1"/>
    </vehicle>
    <vehicle id="3_13" depart="157.00">
        <route edges="B1B BD DG GJ JI IL LL1"/>
    </vehicle>
    <vehicle id="1_27" depart="163.00">
        <route edges="A1A AC CG GJ JI IL LL1"/>
    </vehicle>
    <vehicle id="2_18" depart="163.00">
        <route edges="A1A AC CD DH HK KM MM1"/>
    </vehicle>
    <vehicle id="4_18" depart="163.00">
        <route edges="B1B BE EH HK KM MM1"/>
    </vehicle>
    <vehicle id="1_28" depart="169.00">
        <route edges="A1A AC CG GJ JI IL LL1"/>
    </vehicle>
    <vehicle id="3_14" depart="169.00">
        <route edges="B1B BD DG GJ JI IL LL1"/>
    </vehicle>
    <vehicle id="2_19" depart="172.00">
        <route edges="A1A AC CD DH HK KM MM1"/>
    </vehicle>
    <vehicle id="4_19" depart="172.00">
        <route edges="B1B BE EH HK KM MM1"/>
    </vehicle>
    <vehicle id="1_29" depart="175.00">
        <route edges="A1A AC CG GJ JI IL LL1"/>
    </vehicle>
    <vehicle id="1_30" depart="181.00">
        <route edges="A1A AC CG GJ JI IL LL1"/>
    </vehicle>
    <vehicle id="2_20" depart="181.00">
        <route edges="A1A AC CD DH HK KM MM1"/>
    </vehicle>
    <vehicle id="3_15" depart="181.00">
        <route edges="B1B BD DG GJ JI IL LL1"/>
    </vehicle>
    <vehicle id="4_20" depart="181.00">
        <route edges="B1B BE EH HK KM MM1"/>
    </vehicle>
    <vehicle id="1_31" depart="187.00">
        <route edges="A1A AC CG GJ JI IL LL1"/>
    </vehicle>
    <vehicle id="2_21" depart="190.00">
        <route edges="A1A AC CD DH HK KM MM1"/>
    </vehicle>
    <vehicle id="4_21" depart="190.00">
        <route edges="B1B BE EH HK KM MM1"/>
    </vehicle>
    <vehicle id="1_32" depart="193.00">
        <route edges="A1A AC CG GJ JI IL LL1"/>
    </vehicle>
    <vehicle id="3_16" depart="193.00">
        <route edges="B1B BD DG GJ JI IL LL1"/>
    </vehicle>
    <vehicle id="1_33" depart="199.00">
        <route edges="A1A AC CG GJ JI IL LL1"/>
    </vehicle>
    <vehicle id="2_22" depart="199.00">
        <route edges="A1A AC CD DH HK KM MM1"/>
    </vehicle>
    <vehicle id="4_22" depart="199.00">
        <route edges="B1B BE EH HK KM MM1"/>
    </vehicle>
    <vehicle id="1_34" depart="205.00">
        <route edges="A1A AC CG GJ JI IL LL1"/>
    </vehicle>
    <vehicle id="3_17" depart="205.00">
        <route edges="B1B BD DG GJ JI IL LL1"/>
    </vehicle>
    <vehicle id="2_23" depart="208.00">
        <route edges="A1A AC CD DH HK KM MM1"/>
    </vehicle>
    <vehicle id="4_23" depart="208.00">
        <route edges="B1B BE EH HK KM MM1"/>
    </vehicle>
    <vehicle id="1_35" depart="211.00">
        <route edges="A1A AC CG GJ JI IL LL1"/>
    </vehicle>
    <vehicle id="1_36" depart="217.00">
        <route edges="A1A AC CG GJ JI IL LL1"/>
    </vehicle>
    <vehicle id="2_24" depart="217.00">
        <route edges="A1A AC CD DH HK KM MM1"/>
    </vehicle>
    <vehicle id="3_18" depart="217.00">
        <route edges="B1B BD DG GJ JI IL LL1"/>
    </vehicle>
    <vehicle id="4_24" depart="217.00">
        <route edges="B1B BE EH HK KM MM1"/>
    </vehicle>
    <vehicle id="1_37" depart="223.00">
        <route edges="A1A AC CG GJ JI IL LL1"/>
    </vehicle>
    <vehicle id="2_25" depart="226.00">
        <route edges="A1A AC CD DH HK KM MM1"/>
    </vehicle>
    <vehicle id="4_25" depart="226.00">
        <route edges="B1B BE EH HK KM MM1"/>
    </vehicle>
    <vehicle id="1_38" depart="229.00">
        <route edges="A1A AC CG GJ JI IL LL1"/>
    </vehicle>
    <vehicle id="3_19" depart="229.00">
        <route edges="B1B BD DG GJ JI IL LL1"/>
    </vehicle>
    <vehicle id="1_39" depart="235.00">
        <route edges="A1A AC CG GJ JI IL LL1"/>
    </vehicle>
    <vehicle id="2_26" depart="235.00">
        <route edges="A1A AC CD DH HK KM MM1"/>
    </vehicle>
    <vehicle id="4_26" depart="235.00">
        <route edges="B1B BE EH HK KM MM1"/>
    </vehicle>
    <vehicle id="1_40" depart="241.00">
        <route edges="A1A AC CG GJ JI IL LL1"/>
    </vehicle>
    <vehicle id="3_20" depart="241.00">
        <route edges="B1B BD DG GJ JI IL LL1"/>
    </vehicle>
    <vehicle id="2_27" depart="244.00">
        <route edges="A1A AC CD DH HK KM MM1"/>
    </vehicle>
    <vehicle id="4_27" depart="244.00">
        <route edges="B1B BE EH HK KM MM1"/>
    </vehicle>
    <vehicle id="1_41" depart="247.00">
        <route edges="A1A AC CG GJ JI IL LL1"/>
    </vehicle>
    <vehicle id="1_42" depart="253.00">
        <route edges="A1A AC CG GJ JI IL LL1"/>
    </vehicle>
    <vehicle id="2_28" depart="253.00">
        <route edges="A1A AC CD DH HK KM MM1"/>
    </vehicle>
    <vehicle id="3_21" depart="253.00">
        <route edges="B1B BD DG GJ JI IL LL1"/>
    </vehicle>
    <vehicle id="4_28" depart="253.00">
        <route edges="B1B BE EH HK KM MM1"/>
    </vehicle>
    <vehicle id="1_43" depart="259.00">
        <route edges="A1A AC CG GJ JI IL LL1"/>
    </vehicle>
    <vehicle id="2_29" depart="262.00">
        <route edges="A1A AC CD DH HK KM MM1"/>
    </vehicle>
    <vehicle id="4_29" depart="262.00">
        <route edges="B1B BE EH HK KM MM1"/>
    </vehicle>
    <vehicle id="1_44" depart="265.00">
        <route edges="A1A AC CG GJ JI IL LL1"/>
    </vehicle>
    <vehicle id="3_22" depart="265.00">
        <route edges="B1B BD DG GJ JI IL LL1"/>
    </vehicle>
    <vehicle id="1_45" depart="271.00">
        <route edges="A1A AC CG GJ JI IL LL1"/>
    </vehicle>
    <vehicle id="2_30" depart="271.00">
        <route edges="A1A AC CD DH HK KM MM1"/>
    </vehicle>
    <vehicle id="4_30" depart="271.00">
        <route edges="B1B BE EH HK KM MM1"/>
    </vehicle>
    <vehicle id="1_46" depart="277.00">
        <route edges="A1A AC CG GJ JI IL LL1"/>
    </vehicle>
    <vehicle id="3_23" depart="277.00">
        <route edges="B1B BD DG GJ JI IL LL1"/>
    </vehicle>
    <vehicle id="2_31" depart="280.00">
        <route edges="A1A AC CD DH HK KM MM1"/>
    </vehicle>
    <vehicle id="4_31" depart="280.00">
        <route edges="B1B BE EH HK KM MM1"/>
    </vehicle>
    <vehicle id="1_47" depart="283.00">
        <route edges="A1A AC CG GJ JI IL LL1"/>
    </vehicle>
    <vehicle id="1_48" depart="289.00">
        <route edges="A1A AC CG GJ JI IL LL1"/>
    </vehicle>
    <vehicle id="2_32" depart="289.00">
        <route edges="A1A AC CD DH HK KM MM1"/>
    </vehicle>
    <vehicle id="3_24" depart="289.00">
        <route edges="B1B BD DG GJ JI IL LL1"/>
    </vehicle>
    <vehicle id="4_32" depart="289.00">
        <route edges="B1B BE EH HK KM MM1"/>
    </vehicle>
    <vehicle id="1_49" depart="295.00">
        <route edges="A1A AC CG GJ JI IL LL1"/>
    </vehicle>
    <vehicle id="2_33" depart="298.00">
        <route edges="A1A AC CD DH HK KM MM1"/>
    </vehicle>
    <vehicle id="4_33" depart="298.00">
        <route edges="B1B BE EH HK KM MM1"/>
    </vehicle>
    <vehicle id="1_50" depart="301.00">
        <route edges="A1A AC CG GJ JI IL LL1"/>
    </vehicle>
    <vehicle id="3_25" depart="301.00">
        <route edges="B1B BD DG GJ JI IL LL1"/>
    </vehicle>
    <vehicle id="1_51" depart="307.00">
        <route edges="A1A AC CG GJ JI IL LL1"/>
    </vehicle>
    <vehicle id="2_34" depart="307.00">
        <route edges="A1A AC CD DH HK KM MM1"/>
    </vehicle>
    <vehicle id="4_34" depart="307.00">
        <route edges="B1B BE EH HK KM MM1"/>
    </vehicle>
    <vehicle id="1_52" depart="313.00">
        <route edges="A1A AC CG GJ JI IL LL1"/>
    </vehicle>
    <vehicle id="3_26" depart="313.00">
        <route edges="B1B BD DG GJ JI IL LL1"/>
    </vehicle>
    <vehicle id="2_35" depart="316.00">
        <route edges="A1A AC CD DH HK KM MM1"/>
    </vehicle>
    <vehicle id="4_35" depart="316.00">
        <route edges="B1B BE EH HK KM MM1"/>
    </vehicle>
    <vehicle id="1_53" depart="319.00">
        <route edges="A1A AC CG GJ JI IL LL1"/>
    </vehicle>
    <vehicle id="1_54" depart="325.00">
        <route edges="A1A AC CG GJ JI IL LL1"/>
    </vehicle>
    <vehicle id="2_36" depart="325.00">
        <route edges="A1A AC CD DH HK KM MM1"/>
    </vehicle>
    <vehicle id="3_27" depart="325.00">
        <route edges="B1B BD DG GJ JI IL LL1"/>
    </vehicle>
    <vehicle id="4_36" depart="325.00">
        <route edges="B1B BE EH HK KM MM1"/>
    </vehicle>
    <vehicle id="1_55" depart="331.00">
        <route edges="A1A AC CG GJ JI IL LL1"/>
    </vehicle>
    <vehicle id="2_37" depart="334.00">
        <route edges="A1A AC CD DH HK KM MM1"/>
    </vehicle>
    <vehicle id="4_37" depart="334.00">
        <route edges="B1B BE EH HK KM MM1"/>
    </vehicle>
    <vehicle id="1_56" depart="337.00">
        <route edges="A1A AC CG GJ JI IL LL1"/>
    </vehicle>
    <vehicle id="3_28" depart="337.00">
        <route edges="B1B BD DG GJ JI IL LL1"/>
    </vehicle>
    <vehicle id="1_57" depart="343.00">
        <route edges="A1A AC CG GJ JI IL LL1"/>
    </vehicle>
    <vehicle id="2_38" depart="343.00">
        <route edges="A1A AC CD DH HK KM MM1"/>
    </vehicle>
    <vehicle id="4_38" depart="343.00">
        <route edges="B1B BE EH HK KM MM1"/>
    </vehicle>
    <vehicle id="1_58" depart="349.00">
        <route edges="A1A AC CG GJ JI IL LL1"/>
    </vehicle>
    <vehicle id="3_29" depart="349.00">
        <route edges="B1B BD DG GJ JI IL LL1"/>
    </vehicle>
    <vehicle id="2_39" depart="352.00">
        <route edges="A1A AC CD DH HK KM MM1"/>
    </vehicle>
    <vehicle id="4_39" depart="352.00">
        <route edges="B1B BE EH HK KM MM1"/>
    </vehicle>
    <vehicle id="1_59" depart="355.00">
        <route edges="A1A AC CG GJ JI IL LL1"/>
    </vehicle>
    <vehicle id="1_60" depart="361.00">
        <route edges="A1A AC CG GJ JI IL LL1"/>
    </vehicle>
    <vehicle id="2_40" depart="361.00">
        <route edges="A1A AC CD DH HK KM MM1"/>
    </vehicle>
    <vehicle id="3_30" depart="361.00">
        <route edges="B1B BD DG GJ JI IL LL1"/>
    </vehicle>
    <vehicle id="4_40" depart="361.00">
        <route edges="B1B BE EH HK KM MM1"/>
    </vehicle>
    <vehicle id="1_61" depart="367.00">
        <route edges="A1A AC CG GJ JI IL LL1"/>
    </vehicle>
    <vehicle id="2_41" depart="370.00">
        <route edges="A1A AC CD DH HK KM MM1"/>
    </vehicle>
    <vehicle id="4_41" depart="370.00">
        <route edges="B1B BE EH HK KM MM1"/>
    </vehicle>
    <vehicle id="1_62" depart="373.00">
        <route edges="A1A AC CG GJ JI IL LL1"/>
    </vehicle>
    <vehicle id="3_31" depart="373.00">
        <route edges="B1B BD DG GJ JI IL LL1"/>
    </vehicle>
    <vehicle id="1_63" depart="379.00">
        <route edges="A1A AC CG GJ JI IL LL1"/>
    </vehicle>
    <vehicle id="2_42" depart="379.00">
        <route edges="A1A AC CD DH HK KM MM1"/>
    </vehicle>
    <vehicle id="4_42" depart="379.00">
        <route edges="B1B BE EH HK KM MM1"/>
    </vehicle>
    <vehicle id="1_64" depart="385.00">
        <route edges="A1A AC CG GJ JI IL LL1"/>
    </vehicle>
    <vehicle id="3_32" depart="385.00">
        <route edges="B1B BD DG GJ JI IL LL1"/>
    </vehicle>
    <vehicle id="2_43" depart="388.00">
        <route edges="A1A AC CD DH HK KM MM1"/>
    </vehicle>
    <vehicle id="4_43" depart="388.00">
        <route edges="B1B BE EH HK KM MM1"/>
    </vehicle>
    <vehicle id="1_65" depart="391.00">
        <route edges="A1A AC CG GJ JI IL LL1"/>
    </vehicle>
    <vehicle id="1_66" depart="397.00">
        <route edges="A1A AC CG GJ JI IL LL1"/>
    </vehicle>
    <vehicle id="2_44" depart="397.00">
        <route edges="A1A AC CD DH HK KM MM1"/>
    </vehicle>
    <vehicle id="3_33" depart="397.00">
        <route edges="B1B BD DG GJ JI IL LL1"/>
    </vehicle>
    <vehicle id="4_44" depart="397.00">
        <route edges="B1B BE EH HK KM MM1"/>
    </vehicle>
    <vehicle id="1_67" depart="403.00">
        <route edges="A1A AC CG GJ JI IL LL1"/>
    </vehicle>
    <vehicle id="2_45" depart="406.00">
        <route edges="A1A AC CD DH HK KM MM1"/>
    </vehicle>
    <vehicle id="4_45" depart="406.00">
        <route edges="B1B BE EH HK KM MM1"/>
    </vehicle>
    <vehicle id="1_68" depart="409.00">
        <route edges="A1A AC CG GJ JI IL LL1"/>
    </vehicle>
    <vehicle id="3_34" depart="409.00">
        <route edges="B1B BD DG GJ JI IL LL1"/>
    </vehicle>
    <vehicle id="1_69" depart="415.00">
        <route edges="A1A AC CG GJ JI IL LL1"/>
    </vehicle>
    <vehicle id="2_46" depart="415.00">
        <route edges="A1A AC CD DH HK KM MM1"/>
    </vehicle>
    <vehicle id="4_46" depart="415.00">
        <route edges="B1B BE EH HK KM MM1"/>
    </vehicle>
    <vehicle id="1_70" depart="421.00">
        <route edges="A1A AC CG GJ JI IL LL1"/>
    </vehicle>
    <vehicle id="3_35" depart="421.00">
        <route edges="B1B BD DG GJ JI IL LL1"/>
    </vehicle>
    <vehicle id="2_47" depart="424.00">
        <route edges="A1A AC CD DH HK KM MM1"/>
    </vehicle>
    <vehicle id="4_47" depart="424.00">
        <route edges="B1B BE EH HK KM MM1"/>
    </vehicle>
    <vehicle id="1_71" depart="427.00">
        <route edges="A1A AC CG GJ JI IL LL1"/>
    </vehicle>
    <vehicle id="1_72" depart="433.00">
        <route edges="A1A AC CG GJ JI IL LL1"/>
    </vehicle>
    <vehicle id="2_48" depart="433.00">
        <route edges="A1A AC CD DH HK KM MM1"/>
    </vehicle>
    <vehicle id="3_36" depart="433.00">
        <route edges="B1B BD DG GJ JI IL LL1"/>
    </vehicle>
    <vehicle id="4_48" depart="433.00">
        <route edges="B1B BE EH HK KM MM1"/>
    </vehicle>
    <vehicle id="1_73" depart="439.00">
        <route edges="A1A AC CG GJ JI IL LL1"/>
    </vehicle>
    <vehicle id="2_49" depart="442.00">
        <route edges="A1A AC CD DH HK KM MM1"/>
    </vehicle>
    <vehicle id="4_49" depart="442.00">
        <route edges="B1B BE EH HK KM MM1"/>
    </vehicle>
    <vehicle id="1_74" depart="445.00">
        <route edges="A1A AC CG GJ JI IL LL1"/>
    </vehicle>
    <vehicle id="3_37" depart="445.00">
        <route edges="B1B BD DG GJ JI IL LL1"/>
    </vehicle>
    <vehicle id="1_75" depart="451.00">
        <route edges="A1A AC CG GJ JI IL LL1"/>
    </vehicle>
    <vehicle id="2_50" depart="451.00">
        <route edges="A1A AC CD DH HK KM MM1"/>
    </vehicle>
    <vehicle id="4_50" depart="451.00">
        <route edges="B1B BE EH HK KM MM1"/>
    </vehicle>
    <vehicle id="1_76" depart="457.00">
        <route edges="A1A AC CG GJ JI IL LL1"/>
    </vehicle>
    <vehicle id="3_38" depart="457.00">
        <route edges="B1B BD DG GJ JI IL LL1"/>
    </vehicle>
    <vehicle id="2_51" depart="460.00">
        <route edges="A1A AC CD DH HK KM MM1"/>
    </vehicle>
    <vehicle id="4_51" depart="460.00">
        <route edges="B1B BE EH HK KM MM1"/>
    </vehicle>
    <vehicle id="1_77" depart="463.00">
        <route edges="A1A AC CG GJ JI IL LL1"/>
    </vehicle>
    <vehicle id="1_78" depart="469.00">
        <route edges="A1A AC CG GJ JI IL LL1"/>
    </vehicle>
    <vehicle id="2_52" depart="469.00">
        <route edges="A1A AC CD DH HK KM MM1"/>
    </vehicle>
    <vehicle id="3_39" depart="469.00">
        <route edges="B1B BD DG GJ JI IL LL1"/>
    </vehicle>
    <vehicle id="4_52" depart="469.00">
        <route edges="B1B BE EH HK KM MM1"/>
    </vehicle>
    <vehicle id="1_79" depart="475.00">
        <route edges="A1A AC CG GJ JI IL LL1"/>
    </vehicle>
    <vehicle id="2_53" depart="478.00">
        <route edges="A1A AC CD DH HK KM MM1"/>
    </vehicle>
    <vehicle id="4_53" depart="478.00">
        <route edges="B1B BE EH HK KM MM1"/>
    </vehicle>
    <vehicle id="1_80" depart="481.00">
        <route edges="A1A AC CG GJ JI IL LL1"/>
    </vehicle>
    <vehicle id="3_40" depart="481.00">
        <route edges="B1B BD DG GJ JI IL LL1"/>
    </vehicle>
    <vehicle id="1_81" depart="487.00">
        <route edges="A1A AC CG GJ JI IL LL1"/>
    </vehicle>
    <vehicle id="2_54" depart="487.00">
        <route edges="A1A AC CD DH HK KM MM1"/>
    </vehicle>
    <vehicle id="4_54" depart="487.00">
        <route edges="B1B BE EH HK KM MM1"/>
    </vehicle>
    <vehicle id="1_82" depart="493.00">
        <route edges="A1A AC CG GJ JI IL LL1"/>
    </vehicle>
    <vehicle id="3_41" depart="493.00">
        <route edges="B1B BD DG GJ JI IL LL1"/>
    </vehicle>
    <vehicle id="2_55" depart="496.00">
        <route edges="A1A AC CD DH HK KM MM1"/>
    </vehicle>
    <vehicle id="4_55" depart="496.00">
        <route edges="B1B BE EH HK KM MM1"/>
    </vehicle>
    <vehicle id="1_83" depart="499.00">
        <route edges="A1A AC CG GJ JI IL LL1"/>
    </vehicle>
    <vehicle id="1_84" depart="505.00">
        <route edges="A1A AC CG GJ JI IL LL1"/>
    </vehicle>
    <vehicle id="2_56" depart="505.00">
        <route edges="A1A AC CD DH HK KM MM1"/>
    </vehicle>
    <vehicle id="3_42" depart="505.00">
        <route edges="B1B BD DG GJ JI IL LL1"/>
    </vehicle>
    <vehicle id="4_56" depart="505.00">
        <route edges="B1B BE EH HK KM MM1"/>
    </vehicle>
    <vehicle id="1_85" depart="511.00">
        <route edges="A1A AC CG GJ JI IL LL1"/>
    </vehicle>
    <vehicle id="2_57" depart="514.00">
        <route edges="A1A AC CD DH HK KM MM1"/>
    </vehicle>
    <vehicle id="4_57" depart="514.00">
        <route edges="B1B BE EH HK KM MM1"/>
    </vehicle>
    <vehicle id="1_86" depart="517.00">
        <route edges="A1A AC CG GJ JI IL LL1"/>
    </vehicle>
    <vehicle id="3_43" depart="517.00">
        <route edges="B1B BD DG GJ JI IL LL1"/>
    </vehicle>
    <vehicle id="1_87" depart="523.00">
        <route edges="A1A AC CG GJ JI IL LL1"/>
    </vehicle>
    <vehicle id="2_58" depart="523.00">
        <route edges="A1A AC CD DH HK KM MM1"/>
    </vehicle>
    <vehicle id="4_58" depart="523.00">
        <route edges="B1B BE EH HK KM MM1"/>
    </vehicle>
    <vehicle id="1_88" depart="529.00">
        <route edges="A1A AC CG GJ JI IL LL1"/>
    </vehicle>
    <vehicle id="3_44" depart="529.00">
        <route edges="B1B BD DG GJ JI IL LL1"/>
    </vehicle>
    <vehicle id="2_59" depart="532.00">
        <route edges="A1A AC CD DH HK KM MM1"/>
    </vehicle>
    <vehicle id="4_59" depart="532.00">
        <route edges="B1B BE EH HK KM MM1"/>
    </vehicle>
    <vehicle id="1_89" depart="535.00">
        <route edges="A1A AC CG GJ JI IL LL1"/>
    </vehicle>
    <vehicle id="1_90" depart="541.00">
        <route edges="A1A AC CG GJ JI IL LL1"/>
    </vehicle>
    <vehicle id="2_60" depart="541.00">
        <route edges="A1A AC CD DH HK KM MM1"/>
    </vehicle>
    <vehicle id="3_45" depart="541.00">
        <route edges="B1B BD DG GJ JI IL LL1"/>
    </vehicle>
    <vehicle id="4_60" depart="541.00">
        <route edges="B1B BE EH HK KM MM1"/>
    </vehicle>
    <vehicle id="1_91" depart="547.00">
        <route edges="A1A AC CG GJ JI IL LL1"/>
    </vehicle>
    <vehicle id="2_61" depart="550.00">
        <route edges="A1A AC CD DH HK KM MM1"/>
    </vehicle>
    <vehicle id="4_61" depart="550.00">
        <route edges="B1B BE EH HK KM MM1"/>
    </vehicle>
    <vehicle id="1_92" depart="553.00">
        <route edges="A1A AC CG GJ JI IL LL1"/>
    </vehicle>
    <vehicle id="3_46" depart="553.00">
        <route edges="B1B BD DG GJ JI IL LL1"/>
    </vehicle>
    <vehicle id="1_93" depart="559.00">
        <route edges="A1A AC CG GJ JI IL LL1"/>
    </vehicle>
    <vehicle id="2_62" depart="559.00">
        <route edges="A1A AC CD DH HK KM MM1"/>
    </vehicle>
    <vehicle id="4_62" depart="559.00">
        <route edges="B1B BE EH HK KM MM1"/>
    </vehicle>
    <vehicle id="1_94" depart="565.00">
        <route edges="A1A AC CG GJ JI IL LL1"/>
    </vehicle>
    <vehicle id="3_47" depart="565.00">
        <route edges="B1B BD DG GJ JI IL LL1"/>
    </vehicle>
    <vehicle id="2_63" depart="568.00">
        <route edges="A1A AC CD DH HK KM MM1"/>
    </vehicle>
    <vehicle id="4_63" depart="568.00">
        <route edges="B1B BE EH HK KM MM1"/>
    </vehicle>
    <vehicle id="1_95" depart="571.00">
        <route edges="A1A AC CG GJ JI IL LL1"/>
    </vehicle>
    <vehicle id="1_96" depart="577.00">
        <route edges="A1A AC CG GJ JI IL LL1"/>
    </vehicle>
    <vehicle id="2_64" depart="577.00">
        <route edges="A1A AC CD DH HK KM MM1"/>
    </vehicle>
    <vehicle id="3_48" depart="577.00">
        <route edges="B1B BD DG GJ JI IL LL1"/>
    </vehicle>
    <vehicle id="4_64" depart="577.00">
        <route edges="B1B BE EH HK KM MM1"/>
    </vehicle>
    <vehicle id="1_97" depart="583.00">
        <route edges="A1A AC CG GJ JI IL LL1"/>
    </vehicle>
    <vehicle id="2_65" depart="586.00">
        <route edges="A1A AC CD DH HK KM MM1"/>
    </vehicle>
    <vehicle id="4_65" depart="586.00">
        <route edges="B1B BE EH HK KM MM1"/>
    </vehicle>
    <vehicle id="1_98" depart="589.00">
        <route edges="A1A AC CG GJ JI IL LL1"/>
    </vehicle>
    <vehicle id="3_49" depart="589.00">
        <route edges="B1B BD DG GJ JI IL LL1"/>
    </vehicle>
    <vehicle id="1_99" depart="595.00">
        <route edges="A1A AC CG GJ JI IL LL1"/>
    </vehicle>
    <vehicle id="2_66" depart="595.00">
        <route edges="A1A AC CD DH HK KM MM1"/>
    </vehicle>
    <vehicle id="4_66" depart="595.00">
        <route edges="B1B BE EH HK KM MM1"/>
    </vehicle>
    <vehicle id="1_100" depart="601.00">
        <route edges="A1A AC CG GJ JI IL LL1"/>
    </vehicle>
    <vehicle id="3_50" depart="601.00">
        <route edges="B1B BD DG GJ JI IL LL1"/>
    </vehicle>
    <vehicle id="2_67" depart="604.00">
        <route edges="A1A AC CD DH HK KM MM1"/>
    </vehicle>
    <vehicle id="4_67" depart="604.00">
        <route edges="B1B BE EH HK KM MM1"/>